Circuit: * C:\Users\Daneshvar\Desktop\DLDLab\Exp1\Schmitt Trigger Oscillator\R2200.asc

Direct Newton iteration failed to find .op point.  (Use ".option noopiter" to skip.)
Starting Gmin stepping
Gmin = 10
Gmin = 1.07374
Gmin = 0.115292
Gmin = 0.0123794
Gmin = 0.00132923
Gmin = 0.000142725
vernier = 0.5
vernier = 0.25
vernier = 0.125
vernier = 0.0625
vernier = 0.03125
vernier = 0.015625
vernier = 0.0078125
vernier = 0.00390625
vernier = 0.00195313
Gmin = 0.000142725
vernier = 0.000976563
vernier = 0.000488281
Gmin = 0
Gmin stepping failed

Starting source stepping with srcstepmethod=0
Source Step = 3.0303%
Source Step = 33.3333%
Source Step = 54.7348%
vernier = 0.015625
Source Step = 54.5691%
Starting source stepping with srcstepmethod=1
Source Step = 3.0303%
Source Step = 33.3333%
vernier = 0.25
Source Step = 31.3447%
vernier = 0.000976563
Source stepping failed

Pseudo Transient failed in finding the operating point at 75.2393 ms.
Trouble finding operating point....skipping operating point for Transient analysis.
Ignoring empty pin current: Ix(u1:vcc)
Changing Tseed to 1e-007
Changing Tseed to 1e-009

Date: Tue Nov 10 17:35:09 2020
Total elapsed time: 5.975 seconds.

tnom = 27
temp = 27
method = modified trap
totiter = 5637719
traniter = 433059
tranpoints = 115271
accept = 87932
rejected = 166225
matrix size = 10
fillins = 1
solver = Normal
Matrix Compiler1:      17 opcodes  0.1/[0.0]/0.1
Matrix Compiler2: off  [0.1]/0.3/0.2

