Circuit: * C:\Users\Daneshvar\Desktop\DLDLab\Exp1\NE555 Timer\P1_2_66.asc

Direct Newton iteration for .op point succeeded.

Date: Tue Nov 10 11:32:36 2020
Total elapsed time: 1.136 seconds.

tnom = 27
temp = 27
method = modified trap
totiter = 278189
traniter = 278181
tranpoints = 57056
accept = 44328
rejected = 12728
matrix size = 14
fillins = 0
solver = Normal
Matrix Compiler1: 384 bytes object code size  0.1/0.1/[0.0]
Matrix Compiler2: off  [0.0]/0.1/0.1

